case661.m
function mpc= case661
%CASE30    Power flow data for 30 bus, 6 generator case.
%   Please see 'help caseformat' for details on the case file format.
%
%   Based on data from ...
%     Alsac, O. & Stott, B., "Optimal Load Flow with Steady State Security",
%     IEEE Transactions on Power Apparatus and Systems, Vol. PAS 93, No. 3,
%     1974, pp. 745-751.
%   ... with branch parameters rounded to nearest 0.01, shunt values divided
%   by 100 and shunt on bus 10 moved to bus 5, load at bus 5 zeroed out.
%   Generator locations, costs and limits and bus areas were taken from ...
%     Ferrero, R.W., Shahidehpour, S.M., Ramesh, V.C., "Transaction analysis
%     in deregulated power systems using game theory", IEEE Transactions on
%     Power Systems, Vol. 12, No. 3, Aug 1997, pp. 1340-1347.
%   Generator Q limits were derived from Alsac & Stott, using their Pmax
%   capacities. V limits and line |S| limits taken from Alsac & Stott.

%   MATPOWER
%   $Id: case30.m,v 1.8 2007/09/17 16:07:48 ray Exp $

%%-----  Power Flow Data  -----%%
%% system MVA base
mpc.baseMVA = 100;
% mpc.version = '2';

%% bus data
%	bus_i	type	Pd	Qd	Gs	Bs	area	Vm	Va	baseKV	zone	Vmax	Vmin
mpc.bus = [1		1	123.168	27.7231	0	0	-6515	1.02395	0	220	1	1.06	0.94
2		1	577.528	112.623	0	0	-6515	1.01204	0	220	1	1.06	0.94
3		1	201.276	36.4828	0	0	-6515	1.02578	0	220	1	1.06	0.94
4		1	146.026	20.8003	0	0	-6515	1.04455	0	220	1	1.06	0.94
5		1	122.262	10.5113	0	0	-6515	1.0719	0	220	1	1.06	0.94
6		1	90.7619	7.77103	0	0	-6515	1.04969	0	220	1	1.06	0.94
7		1	181.46	20.3603	0	0	-6515	1.04109	0	220	1	1.06	0.94
8		1	321.292	58.3975	0	0	-6515	1.02397	0	220	1	1.06	0.94
9		1	196.275	36.0923	0	0	-6515	1.04494	0	220	1	1.06	0.94
10		1	329.659	21.6022	0	0	-6515	1.04221	0	220	1	1.06	0.94
11		1	100.618	7.52027	0	0	-6515	1.04331	0	220	1	1.06	0.94
12		1	6.88465	5.35312	0	0	-6515	1.04458	0	220	1	1.06	0.94
13		1	0	-0.0325758	0	0	-6515	0.97912	0	34.5	1	1.06	0.94
14		1	0.216909	0.0308003	0	0	-6515	0.977984	0	34.5	1	1.06	0.94
15		1	-0.000636546	-0.0965168	0	0	-6515	0.978173	0	34.5	1	1.06	0.94
16		1	-0.000636533	-0.0960156	0	0	-6515	0.978173	0	34.5	1	1.06	0.94
17		1	1.14058	3.83829	0	0	-6515	0.978003	0	34.5	1	1.06	0.94
18		1	-0.441716	6.66731	0	0	-6515	0.978115	0	34.5	1	1.06	0.94
19		1	-6.8122	6.90566	0	0	-6515	0.979102	0	34.5	1	1.06	0.94
20		1	-1.87389	5.10434	0	0	-6515	0.978116	0	34.5	1	1.06	0.94
21		1	0.791172	0.498877	0	0	-6515	1.04564	0	500	1	1.06	0.94
22		1	283.326	90.6463	0	0	-6515	1.03483	0	220	1	1.06	0.94
23		1	120.39	12.1212	0	0	-6515	1.03156	0	220	1	1.06	0.94
24		1	353.901	54.949	0	0	-6515	1.04228	0	220	1	1.06	0.94
25		1	-50.6481	-16.9575	0	0	-6515	1.05408	0	220	1	1.06	0.94
26		1	183.475	11.0826	0	0	-6515	1.06664	0	220	1	1.06	0.94
27		1	144.527	21.1988	0	0	-6515	1.04425	0	220	1	1.06	0.94
28		1	64.15	12.588	0	0	-6515	1.02398	0	220	1	1.06	0.94
29		1	217.205	34.0166	0	0	-6515	1.04316	0	220	1	1.06	0.94
30		1	-102.942	-17.6863	0	0	-6515	1.02879	0	15.75	1	1.06	0.94
31		1	-88.238	-17.1103	0	0	-6515	1.02883	0	15.75	1	1.06	0.94
32		1	-108.142	-7.27173	0	0	-6515	1.06316	0	220	1	1.06	0.94
33		1	162.24	63.1511	0	0	-6515	1.03452	0	220	1	1.06	0.94
34		1	166.296	22.4195	0	0	-6515	1.03322	0	220	1	1.06	0.94
35		1	334.625	11.9796	0	0	-6515	1.07492	0	220	1	1.06	0.94
36		1	52.3943	5.33369	0	0	-6515	1.05689	0	220	1	1.06	0.94
37		1	203.379	41.9565	0	0	-6515	1.04277	0	220	1	1.06	0.94
38		1	99.0572	20.3224	0	0	-6515	1.02905	0	220	1	1.06	0.94
39		1	94.1839	20.8868	0	0	-6515	1.03771	0	220	1	1.06	0.94
40		1	74.0001	15.848	0	0	-6515	1.0295	0	220	1	1.06	0.94
41		1	254.64	1.11726	0	0	-6515	1.02309	0	220	1	1.06	0.94
42		1	474.401	126.93	0	0	-6515	1.03675	0	220	1	1.06	0.94
43		1	-1.03E-05	0.014377	0	0	-6515	1.04468	0	220	1	1.06	0.94
44		1	-3.53E-06	0.307014	0	0	-6515	1.04465	0	220	1	1.06	0.94
45		1	424.017	68.522	0	0	-6515	1.02145	0	220	1	1.06	0.94
46		1	226.709	24.1678	0	0	-6515	1.03563	0	220	1	1.06	0.94
47		1	164.448	41.4024	0	0	-6515	1.03444	0	220	1	1.06	0.94
48		1	508.206	99.1017	0	0	-6515	1.03694	0	220	1	1.06	0.94
49		1	-10.6888	0.249785	0	0	-6515	1.06478	0	220	1	1.06	0.94
50		1	41.6372	7.28237	0	0	-6515	1.08439	0	220	1	1.06	0.94
51		1	21.4059	3.37312	0	0	-6515	1.05712	0	220	1	1.06	0.94
52		1	240.433	14.42	0	0	-6515	1.02438	0	220	1	1.06	0.94
53		1	245.601	51.978	0	0	-6515	1.04824	0	220	1	1.06	0.94
54		2	0	0	0	0	-6515	0.980507	0	20	1	1.06	0.94
55		2	0	0	0	0	-6515	0.978175	0	20	1	1.06	0.94
56		1	-317.179	-115.615	0	0	-6515	0.988526	0	20	1	1.06	0.94
57		1	-1.88551	4.87532	0	0	-6515	1.05286	0	220	1	1.06	0.94
58		1	191.474	42.9303	0	0	-6515	1.0457	0	220	1	1.06	0.94
59		1	278.173	70.303	0	0	-6515	1.03578	0	220	1	1.06	0.94
60		1	128.358	30.5873	0	0	-6515	1.0225	0	220	1	1.06	0.94
61		1	0.0907517	0.184919	0	0	-6515	1.04446	0	220	1	1.06	0.94
62		1	0	-8.84621	0	0	-6515	1.04912	0	220	1	1.06	0.94
63		1	-0.00502705	-8.60097	0	0	-6515	1.04902	0	220	1	1.06	0.94
64		1	-1014.34	30.0787	0	0	-6515	1.01308	0	220	1	1.06	0.94
65		1	-0.00680161	-75.0415	0	0	-6515	1.05416	0	34.5	1	1.06	0.94
66		1	-0.00651688	-71.4513	0	0	-6515	1.02162	0	34.5	1	1.06	0.94
67		1	-0.00683156	-69.1126	0	0	-6515	1.01969	0	34.5	1	1.06	0.94
68		1	0.365355	-8.60933	0	0	-6515	1.01344	0	34.5	1	1.06	0.94
69		1	23.8777	65.2284	0	0	-6515	0.981547	0	34.5	1	1.06	0.94
70		1	17.2477	56.6104	0	0	-6515	0.980781	0	34.5	1	1.06	0.94
71		1	0.00133382	23.232	0	0	-6515	1.0556	0	500	1	1.06	0.94
72		1	-26.476	-70.0828	0	0	-6515	1.05265	0	500	1	1.06	0.94
73		1	0.905093	7.18186	0	0	-6515	1.05652	0	220	1	1.06	0.94
74		1	178.468	27.0162	0	0	-6515	1.02607	0	220	1	1.06	0.94
75		1	84.9307	37.4729	0	0	-6515	1.03977	0	220	1	1.06	0.94
76		1	154.535	33.9815	0	0	-6515	1.02561	0	220	1	1.06	0.94
77		1	-50.2015	-6.57929	0	0	-6515	0.954072	0	10.5	1	1.06	0.94
78		2	0	0	0	0	-6515	0.959496	0	10.5	1	1.06	0.94
79		1	-91.4498	-32.4749	0	0	-6515	0.968838	0	15.75	1	1.06	0.94
80		2	0	0	0	0	-6515	0.968821	0	15.75	1	1.06	0.94
81		1	0.469943	0.084859	0	0	-6515	1.04201	0	220	1	1.06	0.94
82		1	0.396172	-1.76229	0	0	-6515	1.02395	0	220	1	1.06	0.94
83		1	187.398	17.2643	0	0	-6515	1.02946	0	220	1	1.06	0.94
84		1	0.781066	-0.041547	0	0	-6515	1.04858	0	220	1	1.06	0.94
85		1	2.22E-14	0.0114707	0	0	-6515	1.00363	0	34.5	1	1.06	0.94
86		1	-2.22E-14	-0.0314707	0	0	-6515	1.00371	0	34.5	1	1.06	0.94
87		1	-13.3788	-18.962	0	0	-6515	1.00364	0	34.5	1	1.06	0.94
88		1	-12.355	-17.0724	0	0	-6515	1.00369	0	34.5	1	1.06	0.94
89		1	-2759.87	175.002	0	0	-6515	1.04911	0	500	1	1.06	0.94
90		1	-217.508	-46.2584	0	0	-6515	1.05611	0	220	1	1.06	0.94
91		1	153.582	20.0521	0	0	-6515	1.04428	0	220	1	1.06	0.94
% 92		1	161.02	43.2923	0	100	-6515	1.02896	0	220	3	1.06	0.94
92		1	161.02	43.2923	0	0	-6515	1.02896	0	220	3	1.06	0.94

93		1	26.9694	6.62072	0	0	-6515	1.04606	0	220	1	1.06	0.94
94		1	0.201162	1.67598	0	0	-6515	1.02956	0	220	1	1.06	0.94
95		1	365.395	57.7932	0	0	-6515	1.04579	0	220	1	1.06	0.94
96		1	259.505	48.3788	0	0	-6515	1.04683	0	220	1	1.06	0.94
97		1	85.5838	25.0276	0	0	-6515	1.05085	0	220	1	1.06	0.94
98		1	51.629	19.2681	0	0	-6515	1.03954	0	220	3	1.06	0.94
99		1	0.361053	-0.313383	0	0	-6515	1.0646	0	220	1	1.06	0.94
100		1	0	119.287	0	0	-6515	0.971389	0	34.5	1	1.06	0.94
101		1	-4.02462	111.428	0	0	-6515	1.02161	0	34.5	1	1.06	0.94
102		1	1.49648	1.79921	0	0	-6515	1.08938	0	500	1	1.06	0.94
103		1	550.412	180.448	0	0	-6515	1.00454	0	220	1	1.06	0.94
104		1	35.8249	-3.07019	0	0	-6515	1.06267	0	220	1	1.06	0.94
105		1	119.225	-1.38603	0	0	-6515	1.06975	0	220	1	1.06	0.94
106		1	40.9051	13.3116	0	0	-6515	1.0226	0	220	3	1.06	0.94
107		1	37.4871	19.1944	0	0	-6515	1.07442	0	220	1	1.06	0.94
108		1	54.9898	13.2617	0	0	-6515	1.05608	0	220	1	1.06	0.94
109		1	0.137066	2.0113	0	0	-6515	1.0523	0	220	1	1.06	0.94
110		1	0.137046	-0.419462	0	0	-6515	1.0523	0	220	1	1.06	0.94
111		1	248.435	23.4772	0	0	-6515	1.04746	0	220	1	1.06	0.94
112		2	0	0	0	0	-6515	1.00829	0	13.8	1	1.06	0.94
113		1	19.2934	1.35625	0	0	-6515	1.07083	0	220	1	1.06	0.94
114		1	-37.6798	-22.8022	0	0	-6515	1.07656	0	220	1	1.06	0.94
115		1	-0.491896	0.144444	0	0	-6515	1.04339	0	220	1	1.06	0.94
116		1	-0.0990481	-0.0362197	0	0	-6515	1.02276	0	220	1	1.06	0.94
117		1	2.22E-14	-0.0824175	0	0	-6515	0.991344	0	34.5	1	1.06	0.94
118		1	0	0.0246263	0	0	-6515	0.991218	0	34.5	1	1.06	0.94
119		1	-2.48555	-118.569	0	0	-6515	1.07242	0	34.5	1	1.06	0.94
120		1	44.869	8.79875	0	0	-6515	1.01129	0	34.5	1	1.06	0.94
121		1	6.86987	6.07878	0	0	-6515	0.991297	0	34.5	1	1.06	0.94
122		1	-0.93105	0.804585	0	0	-6515	0.991232	0	34.5	1	1.06	0.94
123		1	-41.6076	-19.2128	0	0	-6515	1.0494	0	500	1	1.06	0.94
124		1	-85.7845	-8.13986	0	0	-6515	1.05315	0	220	1	1.06	0.94
125		1	212.6	30.3923	0	0	-6515	1.02143	0	220	1	1.06	0.94
126		1	2.04373	0.319715	0	0	-6515	1.04769	0	220	1	1.06	0.94
127		2	0	0	0	0	-6515	1.00988	0	26	1	1.06	0.94
128		2	0	0	0	0	-6515	0.961991	0	26	1	1.06	0.94
129		1	967.663	46.1306	0	0	-6515	0.99908	0	400	1	1.06	0.94
130		1	-1.47556	0.166904	0	0	-6515	1.05354	0	500	1	1.06	0.94
131		1	-1.56644	-5.8419	0	0	-6515	1.05886	0	220	1	1.06	0.94
132		1	-0.163133	-0.51072	0	0	-6515	1.04339	0	220	1	1.06	0.94
133		1	-0.163128	-0.42151	0	0	-6515	1.04337	0	220	1	1.06	0.94
134		1	440.514	64.9655	0	0	-6515	1.03155	0	220	1	1.06	0.94
135		1	142.358	44.2463	0	0	-6515	1.04339	0	220	1	1.06	0.94
136		1	393.417	88.489	0	0	-6515	1.04433	0	220	1	1.06	0.94
137		1	75.3873	14.0373	0	0	-6515	1.03316	0	220	1	1.06	0.94
138		1	202.662	45.5647	0	0	-6515	1.00779	0	220	1	1.06	0.94
139		1	52.1537	12.5147	0	0	-6515	1.05734	0	220	1	1.06	0.94
140		1	103.078	17.3892	0	0	-6515	1.06331	0	220	1	1.06	0.94
141		1	490.684	42.4327	0	0	-6515	1.02604	0	220	1	1.06	0.94
142		1	-0.185358	-4.12066	0	0	-6515	1.07093	0	500	1	1.06	0.94
143		1	0.174274	-3.87931	0	0	-6515	1.0709	0	500	1	1.06	0.94
144		1	-237.763	-76.9602	0	0	-6515	1.0201	0	20	1	1.06	0.94
145		1	-228.521	-88.6667	0	0	-6515	1.02467	0	20	1	1.06	0.94
146		2	0	0	0	0	-6515	1.02699	0	20	1	1.06	0.94
147		1	-243.315	-77.2456	0	0	-6515	0.995741	0	20	1	1.06	0.94
148		1	-263.142	-93.3771	0	0	-6515	1.00096	0	20	1	1.06	0.94
149		1	-256.688	-89.9646	0	0	-6515	0.999897	0	20	1	1.06	0.94
150		1	-11.682	95.7997	0	0	-6515	1.06566	0	220	1	1.06	0.94
151		1	4.77337	1.80458	0	0	-6515	1.0434	0	220	1	1.06	0.94
152		1	-243.749	22.7132	0	0	-6515	1.10515	0	220	1	1.06	0.94
153		1	210.366	21.9641	0	0	-6515	1.04739	0	220	1	1.06	0.94
154		1	359.988	54.665	0	0	-6515	1.04119	0	220	1	1.06	0.94
155		1	-194.478	-5.67455	0	0	-6515	1.07282	0	220	1	1.06	0.94
156		1	-0.13228	-0.259636	0	0	-6515	1.04498	0	220	1	1.06	0.94
157		1	1.019	-112.917	0	0	-6515	1.04353	0	34.5	1	1.06	0.94
158		1	0.931	-112.917	0	0	-6515	1.04355	0	34.5	1	1.06	0.94
159		1	-2.3317	-33.712	0	0	-6515	0.997885	0	34.5	1	1.06	0.94
160		1	4.31515	-34.0664	0	0	-6515	0.997873	0	34.5	1	1.06	0.94
161		1	-2535.65	-145.901	0	0	-6515	1.04801	0	500	1	1.06	0.94
162		1	157.574	1.99054	0	0	-6515	1.02543	0	220	1	1.06	0.94
163		1	341.39	52.481	0	0	-6515	1.03866	0	220	1	1.06	0.94
164		1	245.204	47.8052	0	0	-6515	1.01878	0	220	1	1.06	0.94
165		1	258.152	62.5264	0	0	-6515	1.04633	0	220	1	1.06	0.94
166		1	-292.561	-68.2271	0	0	-6515	1.05554	0	220	1	1.06	0.94
167		1	101.368	22.1926	0	0	-6515	1.04061	0	220	1	1.06	0.94
168		1	-1879.76	2.90234	0	0	-6515	1.04959	0	500	1	1.06	0.94
169		1	451.531	63.2667	0	0	-6515	1.04674	0	220	1	1.06	0.94
170		1	113.498	-8.90777	0	0	-6515	1.06761	0	220	1	1.06	0.94
171		1	0.335543	-0.0619726	0	0	-6515	1.04476	0	220	1	1.06	0.94
172		1	0.897753	0.0678857	0	0	-6515	1.03564	0	220	1	1.06	0.94
173		1	-0.000956274	113.31	0	0	-6515	0.930018	0	34.5	1	1.06	0.94
174		1	-0.000116864	114.556	0	0	-6515	0.938644	0	34.5	1	1.06	0.94
175		1	0	0	0	0	-6515	0.939885	0	34.5	1	1.06	0.94
176		1	38.5058	15.6381	0	0	-6515	0.979971	0	34.5	1	1.06	0.94
177		1	2.32813	-11.8648	0	0	-6515	0.988927	0	34.5	1	1.06	0.94
178		1	-82.7907	-24.5311	0	0	-6515	0.939885	0	34.5	1	1.06	0.94
179		1	68.1447	-1.72389	0	0	-6515	1.04633	0	500	1	1.06	0.94
180		1	-536.694	-36.0981	0	0	-6515	1.06084	0	500	1	1.06	0.94
181		1	-188.774	-87.4468	0	0	-6515	1.06768	0	18	1	1.06	0.94
182		1	-242.939	82.6481	0	0	-6515	1.0607	0	500	1	1.06	0.94
183		1	-4.09E-07	-0.423163	0	0	-6515	1.04326	0	220	1	1.06	0.94
184		1	235.855	39.7084	0	0	-6515	1.0687	0	220	1	1.06	0.94
185		1	98.7466	24.985	0	0	-6515	1.0473	0	220	1	1.06	0.94
186		1	-91.0817	-9.08734	0	0	-6515	1.06932	0	220	1	1.06	0.94
187		1	0.188873	8.09369	0	0	-6515	1.06991	0	220	1	1.06	0.94
188		1	0.548265	0.128585	0	0	-6515	1.03399	0	220	1	1.06	0.94
189		1	181.974	31.3006	0	0	-6515	1.03967	0	220	1	1.06	0.94
190		1	156.731	44.626	0	0	-6515	1.02536	0	220	3	1.06	0.94
191		1	-413.53	-143.186	0	0	-6515	1.05145	0	220	1	1.06	0.94
192		1	173.784	4.68431	0	0	-6515	1.0474	0	220	1	1.06	0.94
193		1	-359.579	-102.001	0	0	-6515	1.0415	0	220	1	1.06	0.94
194		1	-444.665	-111.477	0	0	-6515	1.03636	0	220	1	1.06	0.94
195		1	31.9525	-11.9311	0	0	-6515	1.02329	0	220	3	1.06	0.94
196		1	-21.7556	-7.79626	0	0	-6515	1.04695	0	220	1	1.06	0.94
197		1	-3.12E-05	-33.4328	0	0	-6515	1.0196	0	34.5	1	1.06	0.94
198		1	-0.00066713	-0.121797	0	0	-6515	1.00163	0	34.5	1	1.06	0.94
199		1	-0.000820845	-0.150891	0	0	-6515	1.00146	0	34.5	1	1.06	0.94
200		1	5.30789	-11.4467	0	0	-6515	1.00138	0	34.5	1	1.06	0.94
201		1	9.66798	-9.46229	0	0	-6515	1.00156	0	34.5	1	1.06	0.94
202		1	7.0301	-11.9722	0	0	-6515	1.00088	0	34.5	1	1.06	0.94
203		1	-1.61626	-1.12237	0	0	-6515	1.05376	0	500	1	1.06	0.94
204		1	53.242	29.3206	0	0	-6515	1.04676	0	220	1	1.06	0.94
205		1	12.589	6.88907	0	0	-6515	1.0567	0	220	1	1.06	0.94
206		1	1.23885	31.6784	0	0	-6515	1.04553	0	500	1	1.06	0.94
207		1	1.23885	31.6784	0	0	-6515	1.04553	0	500	1	1.06	0.94
208		1	0.000339976	-5.05643	0	0	-6515	1.04936	0	500	1	1.06	0.94
209		1	164.996	-7.89762	0	0	-6515	1.02405	0	220	1	1.06	0.94
210		1	251.431	64.4465	0	0	-6515	1.0369	0	220	1	1.06	0.94
211		1	190.132	-27.0425	0	0	-6515	1.06929	0	220	1	1.06	0.94
212		1	305.72	70.8551	0	0	-6515	1.0302	0	220	1	1.06	0.94
213		1	0.390912	0.0906468	0	0	-6515	1.06285	0	220	1	1.06	0.94
214		1	0.389987	0.0952508	0	0	-6515	1.06285	0	220	1	1.06	0.94
215		1	184.9	26.675	0	0	-6515	1.02265	0	220	3	1.06	0.94
216		1	366.03	44.3559	0	0	-6515	1.02133	0	220	1	1.06	0.94
217		2	0	0	0	0	-6515	0.980521	0	15.75	1	1.06	0.94
218		1	-157.232	-33.0237	0	0	-6515	0.980454	0	15.75	1	1.06	0.94
219		1	0.888001	0.1332	0	0	-6515	1.03339	0	220	1	1.06	0.94
220		1	214.776	49.3337	0	0	-6515	1.03179	0	220	1	1.06	0.94
221		1	381.726	66.3606	0	0	-6515	1.04968	0	220	1	1.06	0.94
222		1	129.333	27.2918	0	0	-6515	1.06512	0	220	1	1.06	0.94
223		1	49.4813	-1.25427	0	0	-6515	1.0503	0	220	1	1.06	0.94
224		1	15.6202	12.6083	0	0	-6515	1.04326	0	220	1	1.06	0.94
225		1	83.2643	34.9134	0	0	-6515	1.04657	0	220	1	1.06	0.94
226		1	-0.134871	21.2241	0	0	-6515	1.02552	0	220	1	1.06	0.94
227		1	-0.0255766	-11.941	0	0	-6515	1.07348	0	220	1	1.06	0.94
228		2	0	0	0	0	-6515	0.981524	0	20	1	1.06	0.94
229		2	0	0	0	0	-6515	0.981187	0	20	1	1.06	0.94
230		1	-340.706	-112.744	0	0	-6515	0.990762	0	20	1	1.06	0.94
231		1	-2.58996	0.00335293	0	0	-6515	1.05714	0	220	1	1.06	0.94
232		1	187.95	46.3615	0	0	-6515	1.03497	0	220	1	1.06	0.94
233		1	459.801	100.682	0	0	-6515	1.03834	0	220	1	1.06	0.94
234		1	1.62186	0.400425	0	0	-6515	1.05328	0	220	1	1.06	0.94
235		1	-0.00333668	-0.384079	0	0	-6515	0.994651	0	34.5	1	1.06	0.94
236		1	-0.000809676	86.6324	0	0	-6515	0.946498	0	34.5	1	1.06	0.94
237		1	3.94213	90.2968	0	0	-6515	0.994441	0	34.5	1	1.06	0.94
238		1	6.42728	86.3468	0	0	-6515	0.996199	0	34.5	1	1.06	0.94
239		1	2.67218	6.72811	0	0	-6515	1.06562	0	500	1	1.06	0.94
240		1	184.525	6.58171	0	0	-6515	1.03989	0	220	1	1.06	0.94
241		1	37.1134	-1.13754	0	0	-6515	1.04682	0	220	1	1.06	0.94
242		1	-0.34302	2.85159	0	0	-6515	1.05296	0	220	1	1.06	0.94
243		1	-0.34302	2.85159	0	0	-6515	1.05296	0	220	1	1.06	0.94
244		1	542.4	37.2352	0	0	-6515	1.04213	0	220	1	1.06	0.94
245		1	26.3066	3.63305	0	0	-6515	1.0521	0	220	1	1.06	0.94
246		1	20.3762	2.22745	0	0	-6515	1.04156	0	220	1	1.06	0.94
247		1	174.822	-6.76634	0	0	-6515	1.01604	0	220	1	1.06	0.94
248		1	0.468086	0.0704537	0	0	-6515	1.03628	0	220	1	1.06	0.94
249		1	135.585	20.2304	0	0	-6515	1.02153	0	220	1	1.06	0.94
250		1	-69.6435	-2.67855	0	0	-6515	1.01701	0	13.8	1	1.06	0.94
251		1	-121.034	-5.70294	0	0	-6515	1.11449	0	220	1	1.06	0.94
252		1	70.9233	27.5703	0	0	-6515	1.04323	0	220	1	1.06	0.94
253		1	-338.082	-98.1432	0	0	-6515	1.00649	0	20	1	1.06	0.94
254		2	0	0	0	0	-6515	1.00732	0	20	1	1.06	0.94
255		1	15.1649	23.6926	0	0	-6515	1.06005	0	220	1	1.06	0.94
256		1	125.008	29.1884	0	0	-6515	1.04464	0	220	1	1.06	0.94
257		1	7.74E-06	1.12319	0	0	-6515	1.07602	0	220	1	1.06	0.94
258		1	8.33E-06	1.12319	0	0	-6515	1.07602	0	220	1	1.06	0.94
259		1	420.901	55.5771	0	0	-6515	0.99455	0	220	1	1.06	0.94
260		2	0	0	0	0	-6515	1.01638	0	22	1	1.06	0.94
261		2	0	0	0	0	-6515	1.0094	0	22	1	1.06	0.94
262		1	3.52171	7.18316	0	0	-6515	1.07624	0	500	1	1.06	0.94
263		1	134.797	38.4588	0	0	-6515	1.02353	0	220	1	1.06	0.94
264		1	-93.1107	-24.2704	0	0	-6515	0.993504	0	13.8	1	1.06	0.94
265		2	0	0	0	0	-6515	0.995862	0	13.8	1	1.06	0.94
266		1	-82.3829	-16.2827	0	0	-6515	1.07035	0	220	1	1.06	0.94
267		1	118.865	14.9845	0	0	-6515	1.06862	0	220	1	1.06	0.94
268		1	319.165	63.3963	0	0	-6515	1.05544	0	220	1	1.06	0.94
269		1	95.9502	-35.4126	0	0	-6515	1.04431	0	220	1	1.06	0.94
270		1	96.0042	19.1874	0	0	-6515	1.03772	0	220	1	1.06	0.94
271		1	272.633	59.7059	0	0	-6515	1.03326	0	220	1	1.06	0.94
272		1	47.9209	11.7541	0	0	-6515	1.0489	0	220	1	1.06	0.94
273		1	-9.45042	11.9715	0	0	-6515	1.03532	0	220	1	1.06	0.94
274		1	-0.000115487	163.276	0	0	-6515	0.918514	0	34.5	1	1.06	0.94
275		1	-0.000254312	163.979	0	0	-6515	0.91943	0	34.5	1	1.06	0.94
276		1	13.9249	-35.9865	0	0	-6515	0.99184	0	34.5	1	1.06	0.94
277		1	13.6744	-33.577	0	0	-6515	0.991752	0	34.5	1	1.06	0.94
278		1	-9.42415	264.5	0	0	-6515	1.05887	0	500	1	1.06	0.94
279		1	97.7318	29.2684	0	0	-6515	1.05941	0	220	1	1.06	0.94
280		1	0.148562	-0.0198063	0	0	-6515	1.02464	0	220	1	1.06	0.94
281		1	0.0197125	1.13558	0	0	-6515	0.978736	0	34.5	1	1.06	0.94
282		1	0.00223806	0.128943	0	0	-6515	0.979256	0	34.5	1	1.06	0.94
283		1	-0.000151956	-0.00873323	0	0	-6515	0.979274	0	34.5	1	1.06	0.94
284		1	15.7281	7.64587	0	0	-6515	0.979205	0	34.5	1	1.06	0.94
285		1	17.0147	13.1347	0	0	-6515	0.97931	0	34.5	1	1.06	0.94
286		1	-36.0339	6.71177	0	0	-6515	0.97927	0	34.5	1	1.06	0.94
287		1	0.104737	-0.261398	0	0	-6515	1.04572	0	500	1	1.06	0.94
288		1	-89.9036	-24.0702	0	0	-6515	0.975156	0	13.8	1	1.06	0.94
289		1	-84.7923	-23.546	0	0	-6515	0.975025	0	13.8	1	1.06	0.94
290		1	-0.00144395	0.101569	0	0	-6515	1.05056	0	220	1	1.06	0.94
291		1	0.415729	-0.361854	0	0	-6515	1.03253	0	220	1	1.06	0.94
292		1	125.748	-6.45241	0	0	-6515	1.0622	0	220	1	1.06	0.94
...
% 297		1	250.875	-4.11924	0	100	-6515	1.02637	0	220	3	1.06	0.94
297		1	250.875	-4.11924	0	0	-6515	1.02637	0	220	3	1.06	0.94

298		1	-0.889934	-1.87257	0	0	-6515	1.05585	0	220	1	1.06	0.94
299		1	274.589	42.205	0	0	-6515	1.04145	0	220	1	1.06	0.94
300		2	0	0	0	0	-6515	0.97791	0	10.5	1	1.06	0.94
301		1	-88.8333	-32.6983	0	0	-6515	0.97354	0	15.75	1	1.06	0.94
302		1	-0.629388	0.0707861	0	0	-6515	1.04793	0	220	1	1.06	0.94
303		2	0	0	0	0	-6515	0.978427	0	20	1	1.06	0.94
304		2	0	0	0	0	-6515	0.977759	0	20	1	1.06	0.94
305		1	2.41441	0.998098	0	0	-6515	1.04695	0	220	1	1.06	0.94
306		1	0.206718	-0.240994	0	0	-6515	1.04095	0	220	1	1.06	0.94
307		1	-0.00213816	44.95	0	0	-6515	0.970799	0	34.5	1	1.06	0.94
308		1	-0.000582198	121	0	0	-6515	0.921331	0	34.5	1	1.06	0.94
309		1	-0.000929806	44.8063	0	0	-6515	0.968705	0	34.5	1	1.06	0.94
310		1	-5.15674	0.932302	0	0	-6515	0.996358	0	34.5	1	1.06	0.94
311		1	-7.38529	-46.9352	0	0	-6515	0.996847	0	34.5	1	1.06	0.94
312		1	-1.20948	-36.9746	0	0	-6515	0.995255	0	34.5	1	1.06	0.94
313		1	-0.149277	-1.00472	0	0	-6515	1.05843	0	500	1	1.06	0.94
314		1	0.237939	-0.0272841	0	0	-6515	1.02608	0	220	2	1.06	0.94
315		1	0	0	0	0	-6515	1.02996	0	34.5	1	1.06	0.94
316		1	-0.00286054	-0.889089	0	0	-6515	1.03058	0	34.5	1	1.06	0.94
317		1	5.25061	6.10469	0	0	-6515	1.03014	0	34.5	1	1.06	0.94
318		1	3.38987	4.49057	0	0	-6515	1.02996	0	34.5	1	1.06	0.94
319		1	-0.630437	-0.192709	0	0	-6515	1.05554	0	500	1	1.06	0.94
320		1	273.511	63.4307	0	0	-6515	1.02352	0	220	1	1.06	0.94
321		1	-155.756	-19.2547	0	0	-6515	0.963086	0	15.75	1	1.06	0.94
322		1	-152.393	-31.6513	0	0	-6515	0.970916	0	15.75	1	1.06	0.94
323		1	-156.297	-14.4474	0	0	-6515	0.960054	0	15.75	1	1.06	0.94
324		1	-581.765	-89.9113	0	0	-6515	0.907731	0	19	1	1.06	0.94
325		1	-607.756	-71.8351	0	0	-6515	0.902281	0	19	1	1.06	0.94
326		1	-623.18	-80.1809	0	0	-6515	0.905813	0	19	1	1.06	0.94
327		1	-312.417	7.54064	0	0	-6515	0.885898	0	19	1	1.06	0.94
328		1	-309.527	8.85571	0	0	-6515	0.88549	0	19	1	1.06	0.94
329		2	0	0	0	0	-6515	1.01508	0	20	1	1.06	0.94
330		1	-238.854	-54.0572	0	0	-6515	1.01775	0	20	1	1.06	0.94
331		1	26.0119	-29.1302	0	0	-6515	1.04983	0	220	1	1.06	0.94
332		1	-4.44E-14	44.8333	0	0	-6515	0.88763	0	34.5	1	1.06	0.94
333		1	2.22E-14	0	0	0	-6515	0.934201	0	34.5	1	1.06	0.94
334		1	18.6924	-2.31205	0	0	-6515	0.978657	0	34.5	1	1.06	0.94
335		1	18.6515	5.27566	0	0	-6515	0.976664	0	34.5	1	1.06	0.94
336		1	3.73498	0.0704455	0	0	-6515	1.04791	0	500	1	1.06	0.94
337		1	167.789	62.9994	0	0	-6515	1.0561	0	220	1	1.06	0.94
338		1	234.527	67.8225	0	0	-6515	1.06285	0	220	1	1.06	0.94
339		1	165.935	50.4871	0	0	-6515	1.05364	0	220	1	1.06	0.94
340		1	229.614	18	0	0	-6515	1.03792	0	220	1	1.06	0.94
341		1	46.2992	2.0627	0	0	-6515	1.07124	0	220	1	1.06	0.94
342		1	-54.5964	-15.9664	0	0	-6515	1.04471	0	10.5	1	1.06	0.94
343		1	-140.097	-46.1798	0	0	-6515	1.02621	0	220	1	1.06	0.94
344		1	215.177	39.679	0	0	-6515	1.04627	0	220	1	1.06	0.94
345		1	109.371	26.0751	0	0	-6515	1.04883	0	220	1	1.06	0.94
346		1	-686.074	-71.5143	0	0	-6515	1.06289	0	500	1	1.06	0.94
347		2	0	0	0	0	-6515	0.986259	0	15.75	1	1.06	0.94
348		1	-56.0483	-26.7226	0	0	-6515	1.05597	0	220	1	1.06	0.94
349		1	9.57193	6.48322	0	0	-6515	1.0561	0	220	1	1.06	0.94
350		1	20.7454	16.2895	0	0	-6515	1.04484	0	220	1	1.06	0.94
351		1	-12	-4.55E-13	0	0	-6515	0.986538	0	34.5	1	1.06	0.94
352		1	0	0	0	0	-6515	0.987782	0	34.5	1	1.06	0.94
353		1	-2.13E-14	-31.9659	0	0	-6515	1.00456	0	34.5	1	1.06	0.94
354		1	-22.5442	153.925	0	0	-6515	0.917976	0	34.5	1	1.06	0.94
355		1	-22.5442	153.925	0	0	-6515	0.917976	0	34.5	1	1.06	0.94
356		1	13.1325	0.12262	0	0	-6515	0.986472	0	34.5	1	1.06	0.94
357		1	11.0952	13.273	0	0	-6515	0.987782	0	34.5	1	1.06	0.94
358		1	13.6967	7.61246	0	0	-6515	0.985376	0	34.5	1	1.06	0.94
359		1	4.23E-13	1.82E-12	0	0	-6515	1.00187	0	34.5	1	1.06	0.94
360		1	3.77E-13	1.82E-12	0	0	-6515	1.00187	0	34.5	1	1.06	0.94
361		1	458.842	-434.714	0	0	-6515	0.994494	0	400	1	1.06	0.94
362		1	-2.50232	-0.433772	0	0	-6515	1.0467	0	500	1	1.06	0.94
363		1	-0.88404	1.00515	0	0	-6515	1.04496	0	220	1	1.06	0.94
364		1	1.11E-05	1.88924	0	0	-6515	1.0449	0	220	1	1.06	0.94
365		1	171.587	-14.6686	0	0	-6515	1.04595	0	220	1	1.06	0.94
366		1	187.98	32.2042	0	0	-6515	1.06834	0	220	1	1.06	0.94
367		1	0.0260365	0.0558224	0	0	-6515	1.04889	0	220	1	1.06	0.94
368		1	-8.88E-14	59.7941	0	0	-6515	0.967277	0	34.5	1	1.06	0.94
369		1	-4.17374	1.00759	0	0	-6515	1.00344	0	34.5	1	1.06	0.94
370		1	-0.00952182	0.0443013	0	0	-6515	1.07026	0	500	1	1.06	0.94
371		1	222.545	71.1303	0	0	-6515	1.04204	0	220	1	1.06	0.94
372		1	-213.598	-31.5025	0	0	-6515	0.998176	0	20	1	1.06	0.94
373		1	-212.825	-27.1243	0	0	-6515	0.996514	0	20	1	1.06	0.94
374		1	-218.288	-42.0362	0	0	-6515	1.00194	0	20	1	1.06	0.94
375		2	0	0	0	0	-6515	1.00431	0	20	1	1.06	0.94
376		1	2.55934	8.81149	0	0	-6515	1.06118	0	220	1	1.06	0.94
377		1	-419.144	-134.76	0	0	-6515	1.00439	0	20	1	1.06	0.94
378		1	12.7803	32.8396	0	0	-6515	1.07987	0	220	1	1.06	0.94
379		1	116.085	21.6412	0	0	-6515	1.02178	0	220	3	1.06	0.94
380		1	338.304	31.8041	0	0	-6515	1.03326	0	220	1	1.06	0.94
381		1	248.303	32.395	0	0	-6515	1.03884	0	220	1	1.06	0.94
382		1	267.275	71.4663	0	0	-6515	1.03815	0	220	1	1.06	0.94
383		1	51.5272	13.1604	0	0	-6515	1.04456	0	220	1	1.06	0.94
384		1	-6.17137	-7.24936	0	0	-6515	1.03381	0	220	1	1.06	0.94
385		1	70.8404	-10.0419	0	0	-6515	1.0852	0	220	1	1.06	0.94
386		1	150.696	28.0375	0	0	-6515	1.05239	0	220	1	1.06	0.94
387		2	0	0	0	0	-6515	0.991275	0	20	1	1.06	0.94
388		1	-264.177	-76.7503	0	0	-6515	0.987488	0	20	1	1.06	0.94
389		1	-258.356	-80.5489	0	0	-6515	0.988093	0	20	1	1.06	0.94
390		1	-269.654	-79.7572	0	0	-6515	0.987897	0	20	1	1.06	0.94
391		1	0.761135	15.2672	0	0	-6515	1.0586	0	220	1	1.06	0.94
392		2	0	0	0	0	-6515	1.00782	0	20	1	1.06	0.94
393		2	0	0	0	0	-6515	1.03772	0	20	1	1.06	0.94
394		1	-0.604289	-0.0735049	0	0	-6515	1.06735	0	500	1	1.06	0.94
395		1	185.372	4.13111	0	0	-6515	1.024	0	220	1	1.06	0.94
396		1	-17.7537	15.5663	0	0	-6515	1.04477	0	220	1	1.06	0.94
397		2	0	0	0	0	-6515	0.978628	0	22	1	1.06	0.94
398		2	0	0	0	0	-6515	0.978623	0	22	1	1.06	0.94
399		1	14.131	-1.66094	0	0	-6515	1.03399	0	220	1	1.06	0.94
400		1	18.294	-1.25675	0	0	-6515	1.03966	0	220	1	1.06	0.94
401		1	22.3396	-3.21037	0	0	-6515	1.07309	0	220	1	1.06	0.94
402		1	276.512	34.2114	0	0	-6515	1.03059	0	220	1	1.06	0.94
403		1	442.647	78.5932	0	0	-6515	1.03049	0	220	1	1.06	0.94
404		1	118.726	23.7392	0	0	-6515	1.0762	0	220	1	1.06	0.94
405		1	317.26	15.5965	0	0	-6515	1.02316	0	220	1	1.06	0.94
406		1	271.513	-46.073	0	0	-6515	1.06225	0	220	1	1.06	0.94
407		1	371.403	91.5103	0	0	-6515	1.04522	0	220	1	1.06	0.94
408		1	-0.206797	-0.813665	0	0	-6515	1.04539	0	220	1	1.06	0.94
409		1	299.599	56.2904	0	0	-6515	1.02897	0	220	1	1.06	0.94
410		1	-0.206797	-0.813665	0	0	-6515	1.04539	0	220	1	1.06	0.94
411		1	29.4489	7.02484	0	0	-6515	1.02142	0	220	3	1.06	0.94
412		1	471.373	-34.3494	0	0	-6515	1.05379	0	220	1	1.06	0.94
413		1	152.289	11.4336	0	0	-6515	1.05228	0	220	1	1.06	0.94
414		1	51.3499	-1.41174	0	0	-6515	1.05502	0	220	1	1.06	0.94
415		1	103.824	13.8723	0	0	-6515	1.00331	0	220	1	1.06	0.94
416		1	0.70851	-0.200374	0	0	-6515	1.0515	0	220	1	1.06	0.94
417		1	0	-0.0562186	0	0	-6515	1.00583	0	34.5	1	1.06	0.94
418		1	4.44E-14	-0.0439769	0	0	-6515	1.00578	0	34.5	1	1.06	0.94
419		1	-5.15387	-1.36644	0	0	-6515	1.0058	0	34.5	1	1.06	0.94
420		1	-40.452	-4.12408	0	0	-6515	1.00575	0	34.5	1	1.06	0.94
421		1	-2571.7	-12.7853	0	0	-6515	1.06317	0	500	1	1.06	0.94
422		1	373.974	87.6717	0	0	-6515	1.03377	0	220	1	1.06	0.94
423		1	156.225	-27.2985	0	0	-6515	1.05722	0	220	1	1.06	0.94
424		1	-47.0653	-19.2471	0	0	-6515	1.00282	0	10.5	1	1.06	0.94
425		2	0	0	0	0	-6515	0.997509	0	10.5	1	1.06	0.94
426		1	-90.3257	-37.8086	0	0	-6515	0.996629	0	15.75	1	1.06	0.94
427		2	0	0	0	0	-6515	0.999695	0	15.75	1	1.06	0.94
428		1	-0.634394	-0.0576264	0	0	-6515	1.04305	0	220	1	1.06	0.94
429		1	0.136955	-1.57783	0	0	-6515	1.05257	0	220	1	1.06	0.94
430		1	307.024	58.55	0	0	-6515	1.04926	0	220	1	1.06	0.94
431		1	21.1832	-23.916	0	0	-6515	1.04891	0	500	1	1.06	0.94
432		1	-0.0686604	-0.703805	0	0	-6515	1.04155	0	220	1	1.06	0.94
433		1	465.127	80.5494	0	0	-6515	1.03623	0	220	1	1.06	0.94
434		1	0.815294	0.180022	0	0	-6515	1.04145	0	220	1	1.06	0.94
435		1	188.163	33.225	0	0	-6515	1.05109	0	220	1	1.06	0.94
436		1	377.716	10.7699	0	0	-6515	1.03134	0	220	1	1.06	0.94
437		1	330.363	94.6844	0	0	-6515	1.04359	0	220	1	1.06	0.94
438		2	0	0	0	0	-6515	1.00873	0	13.8	1	1.06	0.94
439		2	0	0	0	0	-6515	1.00783	0	15.75	1	1.06	0.94
440		1	1.19545	0.26782	0	0	-6515	1.11009	0	220	1	1.06	0.94
441		1	172.902	19.4017	0	0	-6515	1.0272	0	220	1	1.06	0.94
442		1	361.461	10.3175	0	0	-6515	1.04143	0	220	1	1.06	0.94
443		1	290.645	31.7989	0	0	-6515	1.04511	0	220	1	1.06	0.94
444		1	-283.122	-32.128	0	0	-6515	0.948802	0	20	1	1.06	0.94
445		1	-281.005	-25.8608	0	0	-6515	0.947486	0	20	1	1.06	0.94
446		1	0.182937	0.0934371	0	0	-6515	1.06538	0	500	1	1.06	0.94
447		1	42.3537	12.8156	0	0	-6515	1.04058	0	220	1	1.06	0.94
448		1	203.286	41.1579	0	0	-6515	1.04158	0	220	1	1.06	0.94
449		1	10.0598	-41.3768	0	0	-6515	1.07602	0	220	1	1.06	0.94
450		1	0.00834604	-0.0234999	0	0	-6515	1.04887	0	220	1	1.06	0.94
451		1	0.204511	-116.304	0	0	-6515	1.07613	0	34.5	1	1.06	0.94
452		1	0.202903	-122.646	0	0	-6515	1.08039	0	34.5	1	1.06	0.94
453		1	0.0945561	-116.792	0	0	-6515	1.07554	0	34.5	1	1.06	0.94
454		1	-0.00276967	-0.145165	0	0	-6515	0.989423	0	34.5	1	1.06	0.94
455		1	4.14796	-0.703041	0	0	-6515	1.0158	0	34.5	1	1.06	0.94
456		1	2.01968	-6.11267	0	0	-6515	1.01538	0	34.5	1	1.06	0.94
457		1	6.98887	-4.13189	0	0	-6515	1.01626	0	34.5	1	1.06	0.94
458		1	13.0618	1.47517	0	0	-6515	0.98934	0	34.5	1	1.06	0.94
459		1	-2873.36	197.97	0	0	-6515	1.0556	0	500	1	1.06	0.94
460		1	120.36	-15.7166	0	0	-6515	1.03874	0	220	1	1.06	0.94
461		1	-162.743	-44.2179	0	0	-6515	1.05736	0	220	1	1.06	0.94
462		1	171.557	36.3305	0	0	-6515	1.02405	0	220	1	1.06	0.94
463		1	-79.6593	-6.79953	0	0	-6515	1.06261	0	220	1	1.06	0.94
464		1	233.408	-3.02107	0	0	-6515	1.05891	0	220	1	1.06	0.94
465		1	38.7398	13.7696	0	0	-6515	1.02582	0	220	1	1.06	0.94
466		1	31.9226	14.2543	0	0	-6515	1.07545	0	220	1	1.06	0.94
467		1	387.133	44.2159	0	0	-6515	1.03921	0	220	1	1.06	0.94
468		1	-285.9	-49.0002	0	0	-6515	0.994839	0	20	1	1.06	0.94
469		1	-301.023	-20.3765	0	0	-6515	1.05549	0	220	1	1.06	0.94
470		1	68.1639	2.18524	0	0	-6515	1.01904	0	220	3	1.06	0.94
471		1	292.286	61.2309	0	0	-6515	1.03342	0	220	1	1.06	0.94
472		1	229.923	43.3042	0	0	-6515	1.03607	0	220	1	1.06	0.94
473		1	45.7389	6.72476	0	0	-6515	1.0539	0	220	1	1.06	0.94
474		1	107.973	12.7025	0	0	-6515	1.03988	0	220	1	1.06	0.94
475		1	12.65	60.1375	0	0	-6515	1.04241	0	220	1	1.06	0.94
476		1	-0.00344257	-0.201784	0	0	-6515	0.969853	0	34.5	1	1.06	0.94
477		1	-0.00367438	-0.215372	0	0	-6515	0.969889	0	34.5	1	1.06	0.94
478		1	-9.82368	75.0548	0	0	-6515	0.969798	0	34.5	1	1.06	0.94
479		1	-8.91603	73.733	0	0	-6515	0.969768	0	34.5	1	1.06	0.94
480		1	-0.386564	8.08073	0	0	-6515	1.05577	0	500	1	1.06	0.94
481		1	141.67	17.366	0	0	-6515	1.04326	0	220	1	1.06	0.94
482		1	150.582	7.17576	0	0	-6515	1.04311	0	220	1	1.06	0.94
483		1	-28.0533	-5.38352	0	0	-6515	1.04543	0	220	1	1.06	0.94
484		2	0	0	0	0	-6515	1.00628	0	15.75	1	1.06	0.94
485		2	0	0	0	0	-6515	1.01602	0	20	1	1.06	0.94
486		1	62.2776	26.4378	0	0	-6515	1.06063	0	220	1	1.06	0.94
487		1	3.12333	3.84891	0	0	-6515	1.05984	0	220	1	1.06	0.94
488		1	6.97E-05	0.0248211	0	0	-6515	1.01402	0	34.5	1	1.06	0.94
489		1	0.000250477	0.0921869	0	0	-6515	1.01407	0	34.5	1	1.06	0.94
490		1	-0.400649	4.85987	0	0	-6515	1.01412	0	34.5	1	1.06	0.94
491		1	-9.99193	0.19711	0	0	-6515	1.01403	0	34.5	1	1.06	0.94
492		1	-1674.61	340.107	0	0	-6515	1.06678	0	500	1	1.06	0.94
493		1	0.496831	-0.247807	0	0	-6515	1.05293	0	220	1	1.06	0.94
494		1	-4.44E-14	-0.340455	0	0	-6515	0.994943	0	34.5	1	1.06	0.94
495		1	-7.98106	14.93	0	0	-6515	0.994752	0	34.5	1	1.06	0.94
496		1	0.700087	-0.433998	0	0	-6515	1.06441	0	500	1	1.06	0.94
497		1	217.098	22.8233	0	0	-6515	1.01037	0	220	1	1.06	0.94
...
% 572		1	1.254	0.779076	0	100	-6515	1.0487	0	220	3	1.06	0.94
572		1	1.254	0.779076	0	0	-6515	1.0487	0	220	3	1.06	0.94

573		1	0.649989	0.747559	0	0	-6515	1.07304	0	500	1	1.06	0.94
574		1	84.2774	25.7646	0	0	-6515	1.05105	0	220	1	1.06	0.94
575		1	173.703	31.705	0	0	-6515	1.04476	0	220	1	1.06	0.94
576		1	404.987	69.7402	0	0	-6515	1.02223	0	220	1	1.06	0.94
577		1	43.4261	3.44571	0	0	-6515	1.06482	0	220	1	1.06	0.94
578		1	-72.7209	-20.9	0	0	-6515	0.969906	0	10.5	1	1.06	0.94
579		1	0.73354	-0.423378	0	0	-6515	1.04112	0	220	1	1.06	0.94
580		1	-256.828	46.9705	0	0	-6515	1.10525	0	220	1	1.06	0.94
581		1	175.75	22.3111	0	0	-6515	1.0227	0	220	3	1.06	0.94
582		1	-0.01711	-40.9899	0	0	-6515	1.06988	0	500	1	1.06	0.94
583		1	-0.019827	-45.8733	0	0	-6515	1.07028	0	500	1	1.06	0.94
584		1	128.587	11.1792	0	0	-6515	1.0168	0	220	1	1.06	0.94
585		1	169.237	33.0749	0	0	-6515	1.01351	0	220	1	1.06	0.94
586		1	85.9027	22.6221	0	0	-6515	1.02505	0	220	1	1.06	0.94
587		1	-11.9984	1.93003	0	0	-6515	1.06921	0	220	1	1.06	0.94
588		1	251.579	55.6367	0	0	-6515	1.06604	0	220	1	1.06	0.94
589		1	132.199	21.6604	0	0	-6515	1.04318	0	220	1	1.06	0.94
590		1	182.733	44.8063	0	0	-6515	1.04652	0	220	1	1.06	0.94
591		1	-34.1708	-10.3802	0	0	-6515	1.0254	0	13.8	1	1.06	0.94
592		1	-33.9813	-10.535	0	0	-6515	1.02564	0	13.8	1	1.06	0.94
593		1	-22.9156	-5.14914	0	0	-6515	1.08214	0	220	1	1.06	0.94
594		2	0	0	0	0	-6515	0.958717	0	20	1	1.06	0.94
595		1	-278.477	-39.5835	0	0	-6515	0.954089	0	20	1	1.06	0.94
596		1	2.16784	0.546575	0	0	-6515	1.04487	0	220	1	1.06	0.94
597		1	0.744135	1.12589	0	0	-6515	1.02318	0	220	3	1.06	0.94
598		2	0	0	0	0	-6515	0.990894	0	20	1	1.06	0.94
599		2	0	0	0	0	-6515	0.987097	0	20	1	1.06	0.94
600		1	0.0676412	-0.393549	0	0	-6515	1.04901	0	220	1	1.06	0.94
601		1	4.55776	0.682156	0	0	-6515	1.05401	0	220	1	1.06	0.94
602		1	27.7452	1.69098	0	0	-6515	1.05167	0	220	1	1.06	0.94
603		1	0.241194	-116.432	0	0	-6515	1.04884	0	34.5	1	1.06	0.94
604		1	0.241206	-116.221	0	0	-6515	1.04897	0	34.5	1	1.06	0.94
605		1	-30.9314	-4.28295	0	0	-6515	1.00566	0	34.5	1	1.06	0.94
606		1	-29.6162	-5.18491	0	0	-6515	1.00565	0	34.5	1	1.06	0.94
607		1	2.61243	0.15467	0	0	-6515	1.05495	0	500	1	1.06	0.94
608		1	227.323	58.7022	0	0	-6515	1.04818	0	220	1	1.06	0.94
609		1	-132.922	14.2974	0	0	-6515	1.07263	0	220	1	1.06	0.94
610		1	65.8548	10.3038	0	0	-6515	1.05033	0	220	1	1.06	0.94
611		1	0.192302	-0.334773	0	0	-6515	1.04798	0	220	1	1.06	0.94
612		1	-0.274694	0.105968	0	0	-6515	1.04155	0	220	1	1.06	0.94
613		1	0.0487405	0.0591642	0	0	-6515	1.00287	0	34.5	1	1.06	0.94
614		1	0.0164043	0.0587088	0	0	-6515	0.9962	0	34.5	1	1.06	0.94
615		1	-0.000144763	-0.0258673	0	0	-6515	0.996241	0	34.5	1	1.06	0.94
616		1	-0.448499	-11.6317	0	0	-6515	1.00289	0	34.5	1	1.06	0.94
617		1	15.9914	3.35055	0	0	-6515	0.996224	0	34.5	1	1.06	0.94
618		1	13.5531	2.09869	0	0	-6515	0.996231	0	34.5	1	1.06	0.94
619		1	-2.21153	-0.405367	0	0	-6515	1.05825	0	500	1	1.06	0.94
620		1	52.1343	9.35259	0	0	-6515	1.05187	0	220	1	1.06	0.94
621		1	283.982	-56.0153	0	0	-6515	1.05294	0	220	1	1.06	0.94
622		1	-43.8961	-47.2988	0	0	-6515	1.05393	0	220	1	1.06	0.94
623		1	194.737	25.8315	0	0	-6515	1.031	0	220	1	1.06	0.94
624		1	-54.25	-9.22816	0	0	-6515	0.958343	0	10.5	1	1.06	0.94
625		3	0	0	0	0	-6515	0.962948	0	15.75	1	1.06	0.94
626		1	0.126838	0.142453	0	0	-6515	1.01719	0	220	1	1.06	0.94
627		1	324.887	75.7499	0	0	-6515	1.04641	0	220	1	1.06	0.94
628		1	-295.328	-44.5575	0	0	-6515	1.08734	0	20	1	1.06	0.94
629		2	0	0	0	0	-6515	1.08835	0	20	1	1.06	0.94
630		1	10.1683	43.7401	0	0	-6515	1.07627	0	500	1	1.06	0.94
631		1	33.8015	19.7363	0	0	-6515	1.05115	0	220	1	1.06	0.94
632		1	0.00491277	0.879909	0	0	-6515	1.05444	0	34.5	1	1.06	0.94
633		1	0.00495332	0.889329	0	0	-6515	1.05433	0	34.5	1	1.06	0.94
634		1	-19.1721	-8.22295	0	0	-6515	1.05478	0	34.5	1	1.06	0.94
635		1	-19.2818	-12.6988	0	0	-6515	1.05467	0	34.5	1	1.06	0.94
636		1	4.73113	0.550357	0	0	-6515	1.04799	0	500	1	1.06	0.94
637		1	379.858	15.7347	0	0	-6515	1.02395	0	220	1	1.06	0.94
638		1	-0.841554	0.0540221	0	0	-6515	1.05276	0	220	1	1.06	0.94
639		1	-1.82E-12	7.28E-12	0	0	-6515	1.04334	0	220	1	1.06	0.94
640		1	0.00062188	-33.4944	0	0	-6515	1.02246	0	34.5	1	1.06	0.94
641		1	5.33E-15	-33.5879	0	0	-6515	1.02249	0	34.5	1	1.06	0.94
642		1	0.000731793	-111.411	0	0	-6515	1.0409	0	34.5	1	1.06	0.94
643		1	-0.647	-49.6861	0	0	-6515	1.01671	0	34.5	1	1.06	0.94
644		1	-5.58727	-1.89982	0	0	-6515	0.996694	0	34.5	1	1.06	0.94
645		1	40.0135	-14.1451	0	0	-6515	1.0088	0	34.5	1	1.06	0.94
646		1	-28.384	-0.178176	0	0	-6515	1.00889	0	34.5	1	1.06	0.94
647		1	-5.32466	-63.1154	0	0	-6515	0.997158	0	34.5	1	1.06	0.94
648		1	0.681964	0.511107	0	0	-6515	1.04733	0	500	1	1.06	0.94
649		1	173.801	51.8313	0	0	-6515	1.02359	0	220	1	1.06	0.94
650		1	227.389	-1.52589	0	0	-6515	1.00826	0	220	1	1.06	0.94
651		1	143.782	27.308	0	0	-6515	1.03715	0	220	1	1.06	0.94
652		1	112.18	14.1788	0	0	-6515	1.00688	0	220	1	1.06	0.94
653		2	0	0	0	0	-6515	1.0022	0	13.8	1	1.06	0.94
654		1	-109.072	-36.7619	0	0	-6515	0.979347	0	13.8	1	1.06	0.94
655		2	0	0	0	0	-6515	0.984118	0	18	1	1.06	0.94
656		1	-270.575	-111.556	0	0	-6515	0.986076	0	18	1	1.06	0.94
657		1	2.84907	4.56727	0	0	-6515	1.04291	0	220	1	1.06	0.94
658		1	98.5276	33.4325	0	0	-6515	1.03846	0	220	1	1.06	0.94
659		1	41.9359	13.5328	0	0	-6515	1.04209	0	220	1	1.06	0.94
660		1	382.533	64.4119	0	0	-6515	1.05555	0	220	1	1.06	0.94
661		1	-0.587805	-13.8444	0	0	-6515	1.12078	0	220	1	1.06	0.94
];

% bus(:,3)=0.7*bus(:,3);
%% generator data
%	bus	Pg	Qg	Qmax	Qmin	Vg	mBase	status	Pmax	Pmin
mpc.gen = [
54			316.067	87.7289	-100	100	0.980507	100	1	200	0
55			341.727	81.8065	-100	100	0.978175	100	1	200	0
78			53.2832	10.5583	-100	100	0.959496	100	1	200	0
80			91.4673	32.4532	-100	100	0.968821	100	1	200	0
112			85.533	11.0168	-100	100	1.00829	100	1	200	0
127			936.198	107.171	-100	100	1.00988	100	1	200	0
128			931.712	139.206	-100	100	0.961991	100	1	200	0
146			244.304	95.7836	-100	100	1.02699	100	1	200	0
217			115.905	31.7117	-100	100	0.980521	100	1	200	0
228			348.017	84.1172	-100	100	0.981524	100	1	200	0
229			346.764	82.9044	-100	100	0.981187	100	1	200	0
254			338.614	102.159	-100	100	1.00732	100	1	200	0
260			90.963	-41.4462	-100	100	1.01638	100	1	200	0
261			563.79	-44.1042	-100	100	1.0094	100	1	200	0
265			73.5266	27.9698	-100	100	0.995862	100	1	200	0
300			52.618	19.885	-100	100	0.97791	100	1	200	0
303			167.141	95.4866	-100	100	0.978427	100	1	200	0
304			303.079	134.079	-100	100	0.977759	100	1	200	0
329			237.153	53.1573	-100	100	1.01508	100	1	200	0
347			96.8261	41.2159	-100	100	0.986259	100	1	200	0
375			227.631	49.1221	-100	100	1.00431	100	1	200	0
387			264.564	86.3584	-100	100	0.991275	100	1	200	0
392			567.508	109.854	-100	100	1.00782	100	1	200	0
393			565.861	135.396	-100	100	1.03772	100	1	200	0
397			653.306	191.274	-100	100	0.978628	100	1	200	0
398			604.992	184.918	-100	100	0.978623	100	1	200	0
425			54.4718	16.8434	-100	100	0.997509	100	1	200	0
427			93.8306	42.5943	-100	100	0.999695	100	1	200	0
438			51.5354	-0.751052	-100	100	1.00873	100	1	200	0
439			109.607	1.24645	-100	100	1.00783	100	1	200	0
484			131.255	35.3338	-100	100	1.00628	100	1	200	0
485			189.21	80.9644	-100	100	1.01602	100	1	200	0
504			185.772	33.7438	-100	100	1.04943	100	1	200	0
505			236.438	35.6559	-100	100	1.04918	100	1	200	0
530			89.6168	7.04634	-100	100	1.02877	100	1	200	0
550			84.5898	20.5771	-100	100	1.00531	100	1	200	0
567			437.358	89.9783	-100	100	1.06286	100	1	200	0
568			562.954	97.4379	-100	100	1.062	100	1	200	0
569			565.821	96.1208	-100	100	1.08621	100	1	200	0
570			561.963	95.7779	-100	100	1.08622	100	1	200	0
571			578.552	115.742	-100	100	1.08979	100	1	200	0
594			296.007	78.6174	-100	100	0.958717	100	1	200	0
598			167.617	26.7345	-100	100	0.990894	100	1	200	0
599			167.61	16.6152	-100	100	0.987097	100	1	200	0
625			97.9688	24.5293	-100	100	0.962948	100	1	200	0
629			183.068	37.6983	-100	100	1.08835	100	1	200	0
653			103.703	35.7743	-100	100	1.0022	100	1	200	0
655			283.039	107.89	-100	100	0.984118	100	1	200	0
];

% gen(:,9)=4*gen(:,9);
%% FL
% FL=[1	1
% 2	1
% 3	1
% 4	1
% 5	1
% 6	1
% 7	1
% 8	1
% 9	1
% 10	1
% 11	1
% 12	1
% 13	1
% 14	1
% 15	1
% 16	1
% 17	1
% 18	1
% 19	1
% 20	1
% 21	1
% 22	1
% 23	1
% 24	1
% 25	1
% 26	1
% 27	1
% 28	1
% 29	1
% 30	1
% 31	1
% 32	1
% 33	1
% 34	1
% 35	1
% 36	1
% 37	1
% 38	1
% 39	1
% 40	1
% 41	1
% 42	1
% 43	1
% 44	1
% 45	1
% 46	1
% 47	1
% 48	1
% 49	1
% 50	1
% 51	1
% 52	1
% 53	1
% 54	1
% 55	1
% 56	1
% 57	1
% 58	1
% 59	1
% 60	1
% 61	1
% 62	1
% 63	1
% 64	1
% 65	1
% 66	1
% 67	1
% 68	1
% 69	1
% 70	1
% 71	1
% 72	1
% 73	1
% 74	1
% 75	1
% 76	1
% 77	1
% 78	1
% 79	1
% 80	1
% 81	1
% 82	1
% 83	1
% 84	1
% 85	1
% 86	1
% 87	1
% 88	1
% 89	1
% 90	1
% 91	1
% 92	3
% 93	1
% 94	1
% 95	1
% 96	1
% 97	1
% 98	3
% 99	1
% 100	1
% 101	1
% 102	1
% 103	1
% 104	1
% 105	1
% 106	3
% 107	1
% 108	1
% 109	1
% 110	1
% 111	1
% 112	1
% 113	1
% 114	1
% 115	1
% 116	1
% 117	1
% 118	1
% 119	1
% 120	1
% 121	1
% 122	1
% 123	1
% 124	1
% 125	1
% 126	1
% 127	1
% 128	1
% 129	1
% 130	1
% 131	1
% 132	1
% 133	1
% 134	1
% 135	1
% 136	1
% 137	1
% 138	1
% 139	1
% 140	1
% 141	1
% 142	1
% 143	1
% 144	1
% 145	1
% 146	1
% 147	1
% 148	1
% 149	1
% 150	1
% 151	1
% 152	1
% 153	1
% 154	1
% 155	1
% 156	1
% 157	1
% 158	1
% 159	1
% 160	1
% 161	1
% 162	1
% 163	1
% 164	1
% 165	1
% 166	1
% 167	1
% 168	1
% 169	1
% 170	1
% 171	1
% 172	1
% 173	1
% 174	1
% 175	1
% 176	1
% 177	1
% 178	1
% 179	1
% 180	1
% 181	1
% 182	1
% 183	1
% 184	1
% 185	1
% 186	1
% 187	1
% 188	1
% 189	1
% 190	3
% 191	1
% 192	1
% 193	1
% 194	1
% 195	3
% 196	1
% 197	1
% 198	1
% 199	1
% 200	1
% 201	1
% 202	1
% 203	1
% 204	1
% 205	1
% 206	1
% 207	1
% 208	1
% 209	1
% 210	1
% 211	1
% 212	1
% 213	1
% 214	1
% 215	3
% 216	1
% 217	1
% 218	1
% 219	1
% 220	1
% 221	1
% 222	1
% 223	1
% 224	1
% 225	1
% 226	1
% 227	1
% 228	1
% 229	1
% 230	1
% 231	1
% 232	1
% 233	1
% 234	1
% 235	1
% 236	1
% 237	1
% 238	1
% 239	1
% 240	1
% 241	1
% 242	1
% 243	1
% 244	1
% 245	1
% 246	1
% 247	1
% 248	1
% 249	1
% 250	1
% 251	1
% 252	1
% 253	1
% 254	1
% 255	1
% 256	1
% 257	1
% 258	1
% 259	1
% 260	1
% 261	1
% 262	1
% 263	1
% 264	1
% 265	1
% 266	1
% 267	1
% 268	1
% 269	1
% 270	1
% 271	1
% 272	1
% 273	1
% 274	1
% 275	1
% 276	1
% 277	1
% 278	1
% 279	1
% 280	1
% 281	1
% 282	1
% 283	1
% 284	1
% 285	1
% 286	1
% 287	1
% 288	1
% 289	1
% 290	1
% 291	1
% 292	1
% 293	1
% 294	1
% 295	3
% 296	3
% 297	3
% 298	1
% 299	1
% 300	1
% 301	1
% 302	1
% 303	1
% 304	1
% 305	1
% 306	1
% 307	1
% 308	1
% 309	1
% 310	1
% 311	1
% 312	1
% 313	1
% 314	2
% 315	1
% 316	1
% 317	1
% 318	1
% 319	1
% 320	1
% 321	1
% 322	1
% 323	1
% 324	1
% 325	1
% 326	1
% 327	1
% 328	1
% 329	1
% 330	1
% 331	1
% 332	1
% 333	1
% 334	1
% 335	1
% 336	1
% 337	1
% 338	1
% 339	1
% 340	1
% 341	1
% 342	1
% 343	1
% 344	1
% 345	1
% 346	1
% 347	1
% 348	1
% 349	1
% 350	1
% 351	1
% 352	1
% 353	1
% 354	1
% 355	1
% 356	1
% 357	1
% 358	1
% 359	1
% 360	1
% 361	1
% 362	1
% 363	1
% 364	1
% 365	1
% 366	1
% 367	1
% 368	1
% 369	1
% 370	1
% 371	1
% 372	1
% 373	1
% 374	1
% 375	1
% 376	1
% 377	1
% 378	1
% 379	3
% 380	1
% 381	1
% 382	1
% 383	1
% 384	1
% 385	1
% 386	1
% 387	1
% 388	1
% 389	1
% 390	1
% 391	1
% 392	1
% 393	1
% 394	1
% 395	1
% 396	1
% 397	1
% 398	1
% 399	1
% 400	1
% 401	1
% 402	1
% 403	1
% 404	1
% 405	1
% 406	1
% 407	1
% 408	1
% 409	1
% 410	1
% 411	3
% 412	1
% 413	1
% 414	1
% 415	1
% 416	1
% 417	1
% 418	1
% 419	1
% 420	1
% 421	1
% 422	1
% 423	1
% 424	1
% 425	1
% 426	1
% 427	1
% 428	1
% 429	1
% 430	1
% 431	1
% 432	1
% 433	1
% 434	1
% 435	1
% 436	1
% 437	1
% 438	1
% 439	1
% 440	1
% 441	1
% 442	1
% 443	1
% 444	1
% 445	1
% 446	1
% 447	1
% 448	1
% 449	1
% 450	1
% 451	1
% 452	1
% 453	1
% 454	1
% 455	1
% 456	1
% 457	1
% 458	1
% 459	1
% 460	1
% 461	1
% 462	1
% 463	1
% 464	1
% 465	1
% 466	1
% 467	1
% 468	1
% 469	1
% 470	3
% 471	1
% 472	1
% 473	1
% 474	1
% 475	1
% 476	1
% 477	1
% 478	1
% 479	1
% 480	1
% 481	1
% 482	1
% 483	1
% 484	1
% 485	1
% 486	1
% 487	1
% 488	1
% 489	1
% 490	1
% 491	1
% 492	1
% 493	1
% 494	1
% 495	1
% 496	1
% 497	1
% 498	1
% 499	1
% 500	1
% 501	1
% 502	1
% 503	1
% 504	1
% 505	1
% 506	1
% 507	1
% 508	1
% 509	1
% 510	1
% 511	1
% 512	1
% 513	1
% 514	1
% 515	1
% 516	1
% 517	1
% 518	1
% 519	1
% 520	1
% 521	1
% 522	1
% 523	1
% 524	2
% 525	1
% 526	1
% 527	1
% 528	1
% 529	1
% 530	1
% 531	1
% 532	1
% 533	1
% 534	1
% 535	1
% 536	1
% 537	1
% 538	1
% 539	1
% 540	1
% 541	1
% 542	1
% 543	1
% 544	1
% 545	1
% 546	1
% 547	1
% 548	1
% 549	1
% 550	1
% 551	1
% 552	1
% 553	1
% 554	1
% 555	1
% 556	1
% 557	1
% 558	1
% 559	1
% 560	1
% 561	1
% 562	1
% 563	1
% 564	1
% 565	1
% 566	1
% 567	3
% 568	3
% 569	1
% 570	1
% 571	1
% 572	3
% 573	1
% 574	1
% 575	1
% 576	1
% 577	1
% 578	1
% 579	1
% 580	1
% 581	3
% 582	1
% 583	1
% 584	1
% 585	1
% 586	1
% 587	1
% 588	1
% 589	1
% 590	1
% 591	1
% 592	1
% 593	1
% 594	1
% 595	1
% 596	1
% 597	3
% 598	1
% 599	1
% 600	1
% 601	1
% 602	1
% 603	1
% 604	1
% 605	1
% 606	1
% 607	1
% 608	1
% 609	1
% 610	1
% 611	1
% 612	1
% 613	1
% 614	1
% 615	1
% 616	1
% 617	1
% 618	1
% 619	1
% 620	1
% 621	1
% 622	1
% 623	1
% 624	1
% 625	1
% 626	1
% 627	1
% 628	1
% 629	1
% 630	1
% 631	1
% 632	1
% 633	1
% 634	1
% 635	1
% 636	1
% 637	1
% 638	1
% 639	1
% 640	1
% 641	1
% 642	1
% 643	1
% 644	1
% 645	1
% 646	1
% 647	1
% 648	1
% 649	1
% 650	1
% 651	1
% 652	1
% 653	1
% 654	1
% 655	1
% 656	1
% 657	1
% 658	1
% 659	1
% 660	1
% 661	1
% ];
%% branch data
%	fbus	tbus	r	x	b	rateA	rateB	rateC	ratio	angle	status
mpc.branch = [
% 314	317	2.00E-05	-0.0027	0	9900	305	0	0	0	1
% 314	318	2.00E-05	-0.0029	0	9900	305	0	0	0	1
% 524	527	0	-0.0017	0	9900	305	0	0	0	1
% 524	528	0	-0.0017	0	9900	305	0	0	0	1


584	499	0.00327901	0.012569	0.0346	9900	305	0	0	0	1
2	626	0.00218599	0.009727	0.031	9900	305	0	0	0	1
584	499	0.00327901	0.012569	0.0346	9900	305	0	0	0	1
462	314	0.000546	0.00327901	0.0052	9900	305	0	0	0	1
462	314	0.000546	0.00317	0.0052	9900	305	0	0	0	1
82	263	0.004263	0.015957	0.0192	9900	305	0	0	0	1
60	125	0.000656	0.003388	0.00959999	9900	305	0	0	0	1
331	53	0.000437	0.00295099	0.0052	9900	305	0	0	0	1
331	53	0.00055	0.00295099	0.0052	9900	305	0	0	0	1
422	657	0.002295	0.011913	0.0294	9900	305	0	0	0	1
422	271	0.001858	0.011148	0.0028	9900	305	0	0	0	1
576	141	0.0013	0.003607	0.00959999	9900	305	0	0	0	1
576	141	0.0013	0.003607	0.00959999	9900	305	0	0	0	1
577	266	0.003607	0.012788	0.0328	9900	305	0	0	0	1
577	267	0.002077	0.0118	0.0328	9900	305	0	0	0	1
577	210	0.019346	0.09957	0.1704	9900	305	0	0	0	1
22	565	0.00459	0.024155	0.0664	9900	305	0	0	0	1
305	383	0.0006	0.0038	0.0106	9900	305	0	0	0	1
382	306	0.005137	0.0227341	0.0570002	9900	305	0	0	0	1
305	383	0.0006	0.0038	0.0106	9900	305	0	0	0	1
210	167	0.00306	0.014974	0.0174	9900	305	0	0	0	1
381	564	0.004263	0.014537	0.0472	9900	305	0	0	0	1
590	272	0.004153	0.016285	0.0396	9900	305	0	0	0	1
546	279	0.006667	0.062737	0.0935998	9900	305	0	0	0	1
546	376	0.002295	0.00776	0.0194	9900	305	0	0	0	1
547	657	0.001749	0.012132	0.0406	9900	305	0	0	0	1
547	657	0.001749	0.012241	0.0406	9900	305	0	0	0	1
547	403	0.001639	0.00776	0.0212	9900	305	0	0	0	1
547	403	0.001639	0.00776	0.0212	9900	305	0	0	0	1
402	579	0.002842	0.021532	0.043	9900	305	0	0	0	1
135	6	0.005793	0.035631	0.0987999	9900	305	0	0	0	1
131	660	0.00776	0.0316961	0.0858001	9900	305	0	0	0	1
221	192	0.000984	0.00480901	0.00879999	9900	305	0	0	0	1
136	407	0.00371599	0.015411	0.0466	9900	305	0	0	0	1
11	196	0.0034	0.0194	0.0624002	9900	305	0	0	0	1
473	294	0.002077	0.016449	0.0156	9900	305	0	0	0	1
519	620	0.00677599	0.044	0.0989998	9900	305	0	0	0	1
561	481	0.00317	0.012241	0.042	9900	305	0	0	0	1
32	414	0.005683	0.0267781	0.0716001	9900	305	0	0	0	1
435	104	0.005465	0.036	0.0698001	9900	305	0	0	0	1
9	443	0.007432	0.0357401	0.0989998	9900	305	0	0	0	1
227	337	0.016395	0.078038	0.2076	9900	305	0	0	0	1
106	190	0.005465	0.026231	0.0724001	1	305	0	0	0	1
609	366	0.00623	0.0265591	0.0446	9900	305	0	0	0	1
23	162	0.003388	0.016941	0.0394	9900	305	0	0	0	1
52	395	0.001967	0.007432	0.0202	9900	305	0	0	0	1
623	649	0.004263	0.018362	0.0472	9900	305	0	0	0	1
150	464	0.001312	0.013662	0.04332	9900	305	0	0	0	1
7	564	0.001312	0.00874401	0.0262	9900	305	0	0	0	1
154	447	0.001202	0.00557401	0.0156	9900	305	0	0	0	1
154	305	0.001421	0.008635	0.0238	9900	305	0	0	0	1
154	305	0.001421	0.008525	0.0238	9900	305	0	0	0	1
154	447	0.001093	0.00535599	0.0156	9900	305	0	0	0	1
225	232	0.009727	0.046561	0.1272	9900	305	0	0	0	1
196	11	0.0044	0.0205	0.0616001	9900	305	0	0	0	1
600	241	0.005902	0.02798	0.0935998	9900	305	0	0	0	1
337	339	0.001858	0.010383	0.0314	9900	305	0	0	0	1
337	486	0.002295	0.016285	0.0202	9900	305	0	0	0	1
338	563	0.011476	0.055086	0.1398	9900	305	0	0	0	1
661	251	0.00710401	0.0389099	0.0665999	9900	305	0	0	0	1
36	466	0.005902	0.03727	0.0786001	9900	305	0	0	0	1
649	314	0.00251401	0.013006	0.0362	9900	305	0	0	0	1
290	344	0.003607	0.0094	0.0236	9900	305	0	0	0	1
194	188	0.0002	0.001421	0.0046	9900	305	0	0	0	1
447	306	0.002295	0.012897	0.028	9900	305	0	0	0	1
447	306	0.004372	0.0109	0.0212	9900	305	0	0	0	1
184	366	0.006667	0.045031	0.1208	9900	305	0	0	0	1
443	442	0.002405	0.009727	0.0152	9900	305	0	0	0	1
443	450	0.001202	0.004372	0.0116	9900	305	0	0	0	1
443	442	0.002405	0.009727	0.0152	9900	305	0	0	0	1
443	450	0.001093	0.004263	0.0116	9900	305	0	0	0	1
371	4	0.00295099	0.012351	0.028	9900	305	0	0	0	1
657	422	0.002295	0.011913	0.0294	9900	305	0	0	0	1
412	268	0.001093	0.005028	0.015	9900	305	0	0	0	1
412	268	0.001093	0.005028	0.015	9900	305	0	0	0	1
196	4	0.0017	0.0081	0.021	9900	305	0	0	0	1
196	4	0.0013	0.0073	0.021	9900	305	0	0	0	1
196	430	0.002842	0.009618	0.0296	9900	305	0	0	0	1
196	430	0.00251401	0.009618	0.0296	9900	305	0	0	0	1
413	429	0.0042	0.01607	0.00559998	9900	305	0	0	0	1
437	350	0.001312	0.00557401	0.00940001	9900	305	0	0	0	1
437	350	0.001093	0.005137	0.00940001	9900	305	0	0	0	1
586	83	0.003607	0.017378	0.04734	9900	305	0	0	0	1
314	190	0.0081	0.0301	0.0910002	1	305	0	0	0	1
314	190	0.0064	0.0298	0.0946002	1	305	0	0	0	1
314	125	0.0026	0.012	0.0554001	9900	305	0	0	0	1
314	296	0.0047	0.02798	0.0758002	1	305	0	0	0	1
210	25	0.003498	0.025138	0.0665999	9900	305	0	0	0	1
210	33	0.003388	0.013662	0.0228	9900	305	0	0	0	1
564	306	0.001639	0.00721401	0.018	9900	305	0	0	0	1
190	92	0.003388	0.015739	0.042	1	305	0	0	0	1
26	449	0.002405	0.0155	0.0406	9900	305	0	0	0	1
499	116	0.004263	0.017815	0.0448	9900	305	0	0	0	1
499	116	0.00317	0.015083	0.045	9900	305	0	0	0	1
406	150	0.000656	0.006667	0.0302	9900	305	0	0	0	1
406	150	0.000656	0.006667	0.0302	9900	305	0	0	0	1
660	268	0.001093	0.005028	0.0148	9900	305	0	0	0	1
660	268	0.000984	0.005028	0.0148	9900	305	0	0	0	1
449	258	0.00153	0.009072	0.0194	9900	305	0	0	0	1
449	257	0.001421	0.009072	0.0194	9900	305	0	0	0	1
449	222	0.002623	0.015083	0.0368	9900	305	0	0	0	1
150	292	0.000546	0.00306	0.00920002	9900	305	0	0	0	1
150	292	0.000546	0.00306	0.00920002	9900	305	0	0	0	1
620	600	0.00251401	0.015	0.0296	9900	305	0	0	0	1
486	279	0.000546	0.003388	0.01098	9900	305	0	0	0	1
268	298	0.002842	0.013662	0.02002	9900	305	0	0	0	1
266	267	0.002077	0.00776	0.018	9900	305	0	0	0	1
587	593	0.00710401	0.028964	0.0781999	9900	305	0	0	0	1
267	50	0.00721401	0.0410961	0.0618	9900	305	0	0	0	1
83	219	0.002405	0.008747	0.0232	9900	305	0	0	0	1
83	219	0.00251401	0.008747	0.0232	9900	305	0	0	0	1
76	395	0.000984	0.005793	0.0164	9900	305	0	0	0	1
76	395	0.000984	0.005793	0.0164	9900	305	0	0	0	1
47	396	0.001749	0.012897	0.04	9900	305	0	0	0	1
47	396	0.001749	0.012897	0.04	9900	305	0	0	0	1
339	376	0.012355	0.058911	0.141	9900	305	0	0	0	1
600	249	0.0234	0.1277	0.21726	9900	305	0	0	0	1
6	126	0.001093	0.014537	0.0493999	9900	305	0	0	0	1
52	395	0.00153	0.00710401	0.0194	9900	305	0	0	0	1
23	162	0.00317	0.016067	0.0394	9900	305	0	0	0	1
306	33	0.006995	0.0295099	0.045	9900	305	0	0	0	1
350	299	0.00153	0.00688599	0.016	9900	305	0	0	0	1
350	299	0.00153	0.00688599	0.0166	9900	305	0	0	0	1
271	115	0.004153	0.01869	0.0593999	9900	305	0	0	0	1
271	115	0.004153	0.01869	0.0593999	9900	305	0	0	0	1
2	116	0.00218599	0.01399	0.0352	9900	305	0	0	0	1
2	116	0.001421	0.01563	0.0352	9900	305	0	0	0	1
590	376	0.0035	0.0189	0.0559998	9900	305	0	0	0	1
219	436	0.001967	0.008197	0.0176	9900	305	0	0	0	1
50	251	0.010383	0.05913	0.0910002	9900	305	0	0	0	1
483	579	0.00153	0.011367	0.0314	9900	305	0	0	0	1
32	386	0.003607	0.017269	0.0476	9900	305	0	0	0	1
627	391	0.002405	0.013662	0.0342	9900	305	0	0	0	1
214	338	0.000437	0.002077	0.004	9900	305	0	0	0	1
213	338	0.000437	0.002405	0.0032	9900	305	0	0	0	1
193	189	0.0001	0.00153	0.0028	9900	305	0	0	0	1
135	396	0.000984	0.00786901	0.0234	9900	305	0	0	0	1
135	396	0.000984	0.00786901	0.0234	9900	305	0	0	0	1
487	279	0.002077	0.010711	0.0388	9900	305	0	0	0	1
487	279	0.001639	0.00994599	0.0388	9900	305	0	0	0	1
460	651	0.0008	0.0028	0.1782	9900	305	0	0	0	1
138	652	0.0007	0.0026	0.1782	9900	305	0	0	0	1
366	531	0.019236	0.108423	0.2612	9900	305	0	0	0	1
449	107	0.00055	0.00339	0.0268	9900	305	0	0	0	1
449	107	0.00055	0.00339	0.0268	9900	305	0	0	0	1
139	487	0.002077	0.012679	0.0352	9900	305	0	0	0	1
481	183	0.000328	0.001312	0.002	9900	305	0	0	0	1
108	376	0.00459	0.014427	0.038	9900	305	0	0	0	1
108	376	0.002295	0.014318	0.042	9900	305	0	0	0	1
216	116	0.000546	0.002623	0.0218	9900	305	0	0	0	1
216	116	0.000437	0.002623	0.0218	9900	305	0	0	0	1
437	111	0.00153	0.009618	0.023	9900	305	0	0	0	1
350	10	0.000765	0.005683	0.0312	9900	305	0	0	0	1
350	10	0.000765	0.005683	0.0312	9900	305	0	0	0	1
396	212	0.0032	0.0184	0.0608001	9900	305	0	0	0	1
212	396	0.0032	0.0184	0.0608001	9900	305	0	0	0	1
126	96	0.001858	0.00797901	0.022	9900	305	0	0	0	1
39	460	0.000765	0.00251401	0.1326	9900	305	0	0	0	1
339	279	0.002732	0.013225	0.0376	9900	305	0	0	0	1
295	92	0.00306	0.018908	0.0528	1	305	0	0	0	1
627	561	0.00317	0.019783	0.0546	9900	305	0	0	0	1
7	154	0.00317	0.011039	0.0174	9900	305	0	0	0	1
12	43	0.001312	0.0077	0.0244	9900	305	0	0	0	1
12	44	0.001202	0.007	0.0244	9900	305	0	0	0	1
12	507	0.001858	0.014864	0.0484	9900	305	0	0	0	1
12	532	0.0014	0.0118	0.0352	9900	305	0	0	0	1
433	248	0.0013	0.0064	0.0174	9900	305	0	0	0	1
38	403	0.0012	0.0037	0.2376	9900	305	0	0	0	1
40	403	0.0012	0.0037	0.2376	9900	305	0	0	0	1
497	64	0.001421	0.011586	0.0342	9900	305	0	0	0	1
560	64	0.001093	0.006558	0.0184	9900	305	0	0	0	1
234	620	0.00153	0.009618	0.0268	9900	305	0	0	0	1
64	103	0.001639	0.00448099	0.0136	9900	305	0	0	0	1
64	103	0.001639	0.00448099	0.0136	9900	305	0	0	0	1
150	464	0.001312	0.013662	0.04332	9900	305	0	0	0	1
405	64	0.001639	0.010274	0.0282	9900	305	0	0	0	1
108	139	0.003607	0.0222969	0.0758002	9900	305	0	0	0	1
37	196	0.001749	0.01082	0.03	9900	305	0	0	0	1
37	371	0.001858	0.008635	0.0236	9900	305	0	0	0	1
365	24	0.00153	0.00404401	0.00719998	9900	305	0	0	0	1
365	24	0.00153	0.00404401	0.00719998	9900	305	0	0	0	1
344	290	0.00295099	0.009618	0.0236	9900	305	0	0	0	1
344	165	0.0038	0.0136	0.0428	9900	305	0	0	0	1
344	165	0.003	0.0135	0.0432	9900	305	0	0	0	1
12	532	0.0014	0.01191	0.036	9900	305	0	0	0	1
366	184	0.00295099	0.0306031	0.0801998	9900	305	0	0	0	1
601	234	0.000328	0.00218599	0.00719998	9900	305	0	0	0	1
234	601	0.000328	0.00218599	0.00719998	9900	305	0	0	0	1
473	234	0.00251401	0.0155	0.0458	9900	305	0	0	0	1
498	29	0.0044	0.025	0.0434	9900	305	0	0	0	1
245	234	0.0042	0.0199	0.0541998	9900	305	0	0	0	1
252	620	0.00596901	0.013	0.0122	9900	305	0	0	0	1
225	256	0.00918099	0.0440469	0.12	9900	305	0	0	0	1
28	3	0.001639	0.012241	0.0176	9900	305	0	0	0	1
3	52	0.001312	0.008197	0.0228	9900	305	0	0	0	1
627	163	0.001421	0.014864	0.04424	9900	305	0	0	0	1
111	437	0.001858	0.008853	0.0228	9900	305	0	0	0	1
11	256	0.013553	0.0647039	0.1836	9900	305	0	0	0	1
473	234	0.003935	0.01869	0.0541998	9900	305	0	0	0	1
460	61	0.002295	0.021969	0.0602198	9900	305	0	0	0	1
...
% 491 653 0.00055	0.00339	0.0268	8	305	0	0	0	1%%µû¸ß
% 421 226 0.00055	0.00339	0.0268	8	305	0	0	0	1
% 505 448 0.00055	0.00339	0.0168	8	305	0	0	0	1%%ºÉºì
% 505 448 0.00055	0.00339	0.0168	8	305	0	0	0	1
% 505 226 0.00055	0.00339	0.0268	8	305	0	0	0	1%%ÑâÍú
% 505 226 0.00055	0.00339	0.0268	8	305	0	0	0	1
];
% branch=[584	499	0.00327901	0.012569	0	9900	305	0	0	0	1	-360	360
% 2	626	0.00218599	0.009727	0	9900	305	0	0	0	1	-360	360
% 584	499	0.00327901	0.012569	0	9900	305	0	0	0	1	-360	360
% 462	314	0.000546	0.00327901	0	9900	305	0	0	0	1	-360	360
% 462	314	0.000546	0.00317	0	9900	305	0	0	0	1	-360	360
% 82	263	0.004263	0.015957	0	9900	305	0	0	0	1	-360	360
% 60	125	0.000656	0.003388	0	9900	305	0	0	0	1	-360	360
% 331	53	0.000437	0.00295099	0	9900	305	0	0	0	1	-360	360
% 331	53	0.00055	0.00295099	0	9900	305	0	0	0	1	-360	360
% 422	657	0.002295	0.011913	0	9900	305	0	0	0	1	-360	360
% 422	271	0.001858	0.011148	0	9900	305	0	0	0	1	-360	360
% 576	141	0.0013	0.003607	0	9900	305	0	0	0	1	-360	360
% 576	141	0.0013	0.003607	0	9900	305	0	0	0	1	-360	360
% 577	266	0.003607	0.012788	0	9900	305	0	0	0	1	-360	360
% 577	267	0.002077	0.0118	0	9900	305	0	0	0	1	-360	360
% 577	210	0.019346	0.09957	0	9900	305	0	0	0	1	-360	360
% 22	565	0.00459	0.024155	0	9900	305	0	0	0	1	-360	360
% 305	383	0.0006	0.0038	0	9900	305	0	0	0	1	-360	360
% 382	306	0.005137	0.0227341	0	9900	305	0	0	0	1	-360	360
% 305	383	0.0006	0.0038	0	9900	305	0	0	0	1	-360	360
% 210	167	0.00306	0.014974	0	9900	305	0	0	0	1	-360	360
% 381	564	0.004263	0.014537	0	9900	305	0	0	0	1	-360	360
% 590	272	0.004153	0.016285	0	9900	305	0	0	0	1	-360	360
% 546	279	0.006667	0.062737	0	9900	305	0	0	0	1	-360	360
% 546	376	0.002295	0.00776	0	9900	305	0	0	0	1	-360	360
% 547	657	0.001749	0.012132	0	9900	305	0	0	0	1	-360	360
% 547	657	0.001749	0.012241	0	9900	305	0	0	0	1	-360	360
% 547	403	0.001639	0.00776	0	9900	305	0	0	0	1	-360	360
% 547	403	0.001639	0.00776	0	9900	305	0	0	0	1	-360	360
% 402	579	0.002842	0.021532	0	9900	305	0	0	0	1	-360	360
% 135	6	0.005793	0.035631	0	9900	305	0	0	0	1	-360	360
% 131	660	0.00776	0.0316961	0	9900	305	0	0	0	1	-360	360
% 221	192	0.000984	0.00480901	0	9900	305	0	0	0	1	-360	360
% 136	407	0.00371599	0.015411	0	9900	305	0	0	0	1	-360	360
% 11	196	0.0034	0.0194	0	9900	305	0	0	0	1	-360	360
% 473	294	0.002077	0.016449	0	9900	305	0	0	0	1	-360	360
% 519	620	0.00677599	0.044	0	9900	305	0	0	0	1	-360	360
% 561	481	0.00317	0.012241	0	9900	305	0	0	0	1	-360	360
% 32	414	0.005683	0.0267781	0	9900	305	0	0	0	1	-360	360
% 435	104	0.005465	0.036	0	9900	305	0	0	0	1	-360	360
% 9	443	0.007432	0.0357401	0	9900	305	0	0	0	1	-360	360
% 227	337	0.016395	0.078038	0	9900	305	0	0	0	1	-360	360
% 106	190	0.005465	0.026231	0	1	305	0	0	0	1	-360	360
% 609	366	0.00623	0.0265591	0	9900	305	0	0	0	1	-360	360
% 23	162	0.003388	0.016941	0	9900	305	0	0	0	1	-360	360
% 52	395	0.001967	0.007432	0	9900	305	0	0	0	1	-360	360
% 623	649	0.004263	0.018362	0	9900	305	0	0	0	1	-360	360
% 150	464	0.001312	0.013662	0	9900	305	0	0	0	1	-360	360
% 7	564	0.001312	0.00874401	0	9900	305	0	0	0	1	-360	360
% 154	447	0.001202	0.00557401	0	9900	305	0	0	0	1	-360	360
% 154	305	0.001421	0.008635	0	9900	305	0	0	0	1	-360	360
% 154	305	0.001421	0.008525	0	9900	305	0	0	0	1	-360	360
% 154	447	0.001093	0.00535599	0	9900	305	0	0	0	1	-360	360
% 225	232	0.009727	0.046561	0	9900	305	0	0	0	1	-360	360
% 196	11	0.0044	0.0205	0	9900	305	0	0	0	1	-360	360
% 600	241	0.005902	0.02798	0	9900	305	0	0	0	1	-360	360
% 337	339	0.001858	0.010383	0	9900	305	0	0	0	1	-360	360
% 337	486	0.002295	0.016285	0	9900	305	0	0	0	1	-360	360
% 338	563	0.011476	0.055086	0	9900	305	0	0	0	1	-360	360
% 661	251	0.00710401	0.0389099	0	9900	305	0	0	0	1	-360	360
% 36	466	0.005902	0.03727	0	9900	305	0	0	0	1	-360	360
% 649	314	0.00251401	0.013006	0	9900	305	0	0	0	1	-360	360
% 290	344	0.003607	0.0094	0	9900	305	0	0	0	1	-360	360
% 194	188	0.0002	0.001421	0	9900	305	0	0	0	1	-360	360
% 447	306	0.002295	0.012897	0	9900	305	0	0	0	1	-360	360
% 447	306	0.004372	0.0109	0	9900	305	0	0	0	1	-360	360
% 184	366	0.006667	0.045031	0	9900	305	0	0	0	1	-360	360
% 443	442	0.002405	0.009727	0	9900	305	0	0	0	1	-360	360
% 443	450	0.001202	0.004372	0	9900	305	0	0	0	1	-360	360
% 443	442	0.002405	0.009727	0	9900	305	0	0	0	1	-360	360
% 443	450	0.001093	0.004263	0	9900	305	0	0	0	1	-360	360
% 371	4	0.00295099	0.012351	0	9900	305	0	0	0	1	-360	360
% 657	422	0.002295	0.011913	0	9900	305	0	0	0	1	-360	360
% 412	268	0.001093	0.005028	0	9900	305	0	0	0	1	-360	360
% 412	268	0.001093	0.005028	0	9900	305	0	0	0	1	-360	360
% 196	4	0.0017	0.0081	0	9900	305	0	0	0	1	-360	360
% 196	4	0.0013	0.0073	0	9900	305	0	0	0	1	-360	360
% 196	430	0.002842	0.009618	0	9900	305	0	0	0	1	-360	360
% 196	430	0.00251401	0.009618	0	9900	305	0	0	0	1	-360	360
% 413	429	0.0042	0.01607	0	9900	305	0	0	0	1	-360	360
% 437	350	0.001312	0.00557401	0	9900	305	0	0	0	1	-360	360
% 437	350	0.001093	0.005137	0	9900	305	0	0	0	1	-360	360
% 586	83	0.003607	0.017378	0	9900	305	0	0	0	1	-360	360
% 314	190	0.0081	0.0301	0	1	305	0	0	0	1	-360	360
% 314	190	0.0064	0.0298	0	1	305	0	0	0	1	-360	360
% 314	125	0.0026	0.012	0	9900	305	0	0	0	1	-360	360
% 314	296	0.0047	0.02798	0	1	305	0	0	0	1	-360	360
% 210	25	0.003498	0.025138	0	9900	305	0	0	0	1	-360	360
% 210	33	0.003388	0.013662	0	9900	305	0	0	0	1	-360	360
% 564	306	0.001639	0.00721401	0	9900	305	0	0	0	1	-360	360
% 190	92	0.003388	0.015739	0	1	305	0	0	0	1	-360	360
% 26	449	0.002405	0.0155	0	9900	305	0	0	0	1	-360	360
% 499	116	0.004263	0.017815	0	9900	305	0	0	0	1	-360	360
% 499	116	0.00317	0.015083	0	9900	305	0	0	0	1	-360	360
% 406	150	0.000656	0.006667	0	9900	305	0	0	0	1	-360	360
% 406	150	0.000656	0.006667	0	9900	305	0	0	0	1	-360	360
% 660	268	0.001093	0.005028	0	9900	305	0	0	0	1	-360	360
% 660	268	0.000984	0.005028	0	9900	305	0	0	0	1	-360	360
% 449	258	0.00153	0.009072	0	9900	305	0	0	0	1	-360	360
% 449	257	0.001421	0.009072	0	9900	305	0	0	0	1	-360	360
% 449	222	0.002623	0.015083	0	9900	305	0	0	0	1	-360	360
% 150	292	0.000546	0.00306	0	9900	305	0	0	0	1	-360	360
% 150	292	0.000546	0.00306	0	9900	305	0	0	0	1	-360	360
% 620	600	0.00251401	0.015	0	9900	305	0	0	0	1	-360	360
...